*This library contains analog parts for the Micro-Cap evaluation version.

.macro ST2 DIAC(32,.5)
.macro 2N5444 TRIAC(10m,20m,1u,1.65,200,50MEG,0,1,1)
.macro 2N690 SCR(7.3m,6m,2u,1.15,600,30MEG,100u,1,1)

* LM311 VOLTAGE COMPARATOR "MACROMODEL" SUBCIRCUIT
* CREATED USING PARTS VERSION 4.03 ON 03/07/90 AT 08:15
* REV (N/A)
* CONNECTIONS:   NON-INVERTING INPUT
*                | INVERTING INPUT
*                | | POSITIVE POWER SUPPLY
*                | | | NEGATIVE POWER SUPPLY
*                | | | | OPEN COLLECTOR OUTPUT
*                | | | | | OUTPUT GROUND
*                | | | | | |
.SUBCKT LM311_TI    1 2 3 4 5 6
*
  F1    9  3 V1 1
  IEE   3  7 DC 100.0E-6
  VI1  21  1 DC .45
  VI2  22  2 DC .45
  Q1    9 21  7 QIN
  Q2    8 22  7 QIN
  Q3    9  8  4 QMO
  Q4    8  8  4 QMI
.MODEL QIN PNP(IS=800.0E-18 BF=500)
.MODEL QMI NPN(IS=800.0E-18 BF=1002)
.MODEL QMO NPN(IS=800.0E-18 BF=1000 CJC=1E-15 TR=102.5E-9)
  E1   10  6  9  4  1
  V1   10 11 DC 0
  Q5    5 11  6 QOC
.MODEL QOC NPN(IS=800.0E-18 BF=103.5E3 CJC=1E-15 TF=11.60E-12 TR=48.19E-9)
  DP    4  3 DX
  RP    3  4 6.667E3
.MODEL DX  D(IS=800.0E-18)
*
.ENDS

*** 5.6V 500mW Zener Diode
.MODEL 1N752 D (IS=5.72393F BV=5.6 IBV=20M RS=11 CJO=149.624P VJ=750M
+ M=499.419M RL=1G)

.MODEL 2N4393 NJF (VTO=-2.81041 BETA=4.644731M LAMBDA=10M IS=10F RS=2.483091
+ CGD=5.321821P CGS=9.310367P PB=2.449314 KF=1.462538E-018 AF=499.910353M)

*** NPN 40V 200mA
.MODEL 2N3946 NPN (BF=78.0026 BR=105.035M CJC=4.87834P CJE=7.01663P
+ IKF=145.824M IKR=46.8389 IS=.629196F ISC=100P ISE=985.815F ITF=9.94048M
+ MJC=300M MJE=300M NE=1.74045 NF=929.132M RC=394.919M RE=2 TF=570.088P
+ TR=3.50347U VAF=100 VJC=756.556M VJE=907.488M VTF=10 XTF=500.002M)

* LM339 VOLTAGE COMPARATOR "MACROMODEL" SUBCIRCUIT
* CREATED USING PARTS VERSION 4.03 ON 03/07/90 AT 14:17
* REV (N/A)
* CONNECTIONS:   NON-INVERTING INPUT
*                | INVERTING INPUT
*                | | POSITIVE POWER SUPPLY
*                | | | NEGATIVE POWER SUPPLY
*                | | | | OPEN COLLECTOR OUTPUT
*                | | | | |
.SUBCKT LM339_TI    1 2 3 4 5
*
  F1    9  3 V1 1
  IEE   3  7 DC 100.0E-6
  VI1  21  1 DC .75
  VI2  22  2 DC .75
  Q1    9 21  7 QIN
  Q2    8 22  7 QIN
  Q3    9  8  4 QMO
  Q4    8  8  4 QMI
.MODEL QIN PNP(IS=800.0E-18 BF=2.000E3)
.MODEL QMI NPN(IS=800.0E-18 BF=1002)
.MODEL QMO NPN(IS=800.0E-18 BF=1000 CJC=1E-15 TR=807.4E-9)
  E1   10  4  9  4  1
  V1   10 11 DC 0
  Q5    5 11  4 QOC
.MODEL QOC NPN(IS=800.0E-18 BF=20.29E3 CJC=1E-15 TF=942.6E-12 TR=543.8E-9)
  DP    4  3 DX
  RP 3  4 46.3E3
.MODEL DX  D(IS=800.0E-18)
*
.ENDS

*   ZETEX  BCX38B Darlington Spice Subcircuit   Last revision  4/9/90
*
.SUBCKT BCX38B_ZX 1 2 3
*                 C B E
Q1 1 2 4 SUB38B
Q2 1 4 3 SUB38B 12.75
*
.MODEL SUB38B NPN IS =1.1E-14 ISE=7.1E-15 NF =1.012 NE =1.4758 BF =147 IKF=.12
+BR =15 IKR=.05 RE =1.3 RC =.5 RB =.3 VAF=150 CJE=14.5E-12 CJC=4.14E-12
+VJC=.515 MJC=.26 TF =1.15E-9 TR =75E-9
.ENDS

*** NPN Switching transistor
.MODEL 2N2368 NPN (BF=199.98 BR=283.438M CJC=13.2665P CJE=6.9282P IKF=34.4419M
+ IKR=1.01213 IS=9.9361F ISC=15.3011P ISE=1.01303P ITF=9.94851M MJC=571.784M
+ MJE=619.259M NE=1.80128 NF=1.16114 RC=500M RE=1.99992 TF=291.314P TR=77.781N
+ VAF=100 VJC=700.227M VJE=700.316M VTF=10 XTF=500M)

*** NPN General Purpose transistor
.MODEL 2N3020 NPN (BF=199.956 BR=5 CJC=54.9657P CJE=84.8478P IKF=106.503M
+ IKR=320.274 IS=10.0235F ISC=.0120504F ISE=1.0342P ITF=9.52427M MJC=558.067M
+ MJE=642.888M NE=1.62796 NF=1.01959 RE=2 TF=1.4923N TR=10N VAF=100 VJC=700M
+ VJE=700M VTF=10 XTF=499.997M)

*** PNP General Purpose transistor
.MODEL 2N3249 PNP (BF=105.183 BR=5 CJC=36.6437P CJE=13.8564P IKF=126.302M
+ IKR=888.107 IS=9.68398F ISC=.00001566903F ISE=998.009F ITF=9.65567M
+ MJC=558.066M MJE=619.259M NE=2.81306 NF=1.32082 RE=2 TF=366.395P TR=22.8691N
+ VAF=100 VJC=700M VJE=700.316M VTF=10 XTF=500.005M)

*** NPN General Purpose transistor
.MODEL 2N3252 NPN (BF=189.788 BR=67.6131M CJC=54.9657P CJE=113.13P IKF=999.97M
+ IKR=10.3625 IS=10.0015F ISC=99.3494P ISE=1.04239P ITF=10.0701M MJC=558.067M
+ MJE=642.884M NE=1.44031 NF=999.107M RE=969.806M TF=506.537P TR=1.12087U
+ VAF=100 VJC=700M VJE=700M VTF=10 XTF=500M)

*** NPN 350V 1A
.MODEL 2N3439 NPN (BF=239.069 BR=265.04M CJC=19.8784P CJE=108.211P FC=500.001M
+ IKF=10.5948M IKR=1.00891 IS=9.94996F ISC=4.89752P ISE=99.2945P ITF=1.75717P
+ MJC=317.349M MJE=432.698M NE=1.9593 NF=913.046M RE=329.989M TF=1N TR=14.2947U
+ VAF=100 VJC=700M VJE=999.674M VTF=9.96322 XTF=3.39469)

*** PNP Switching transistor
.MODEL 2N3467 PNP (BF=247.221 BR=1.24973 CJC=114.512P CJE=2P IKF=1.00206
+ IKR=1.22887 IS=11.9064F ISC=.0001871002F ISE=1.01389P ITF=9.65139M
+ MJC=558.067M MJE=500M NE=1.68357 NF=1.15891 RC=16.7935M RE=638.983M
+ TF=714.427P TR=10N VAF=100 VJC=700M VTF=10 XTF=499.993M)

*** NPN Switching transistors
.MODEL 2N3506 NPN (BF=199.954 BR=1.00001M CJC=183.218P CJE=793.459P
+ IKF=812.767M IKR=10.0001M IS=10.0052F ISC=99.9231P ISE=1.0645P ITF=14.9812M
+ MJC=558.066M MJE=584.153M NE=1.49625 NF=995.168M RC=73.2975M RE=376.252M
+ TF=1.56036N TR=14.9832M VAF=100 VJC=700M VJE=700M VTF=10 XTF=499.984M)

*** PNP 12V 200mA
.MODEL 2N3546 PNP (BF=115.535 BR=63.2956M CJC=27.4829P CJE=7.07064P
+ IKF=46.2036M IKR=123.606M IS=9.96963F ISC=.00169472F ISE=1.02856P
+ ITF=9.81567M MJC=558.067M MJE=642.884M NE=1.42069 NF=979.394M RC=2
+ TF=146.192P TR=1.13397U VAF=100 VJC=700M VJE=700M VTF=10 XTF=499.974M)

*** PNP 3A 40V
.MODEL 2N3719 PNP (BF=1.733657878042K BR=114.578788838029M
+ CJC=200.065964075556P CJE=437.448170496569P FC=500.000000875623M
+ IKF=1.020291621242 IKR=999.881419001101 IS=9.976157306757F
+ ISC=15.699938660115P ISE=949.953630065609F ITF=20.737384560384M
+ MJC=385.10568332733M MJE=427.061480357992M NC=2.000000003279
+ NE=1.259265081229 NF=910.728237673277M RC=64.230993911476M
+ RE=134.913341730933M TF=2.072558338631N TR=2.765277419151U VAF=100
+ VJC=700.000000017214M VJE=999.994942520243M VTF=9.999999541775
+ XTF=500.004584137552M)

*** NPN Switching transistor
.MODEL 2N3725 NPN (BF=144.581 BR=26.4652M CJC=45.8046P CJE=77.7771P
+ IKF=415.715M IKR=751.94 IS=10.0004F ISC=87.7774P ISE=1.11516P ITF=10M
+ MJC=558.065M MJE=642.888M NE=1.67627 NF=999.682M RE=992.13M TF=1N TR=714.758N
+ VAF=100 VJC=700M VJE=700M VTF=10 XTF=500M)

*** NPN 30V 1A
.MODEL 2N4014 NPN (BF=545.591 BR=2.5502M CJC=12.0408P CJE=62.8129P IKF=50.2128M
+ IKR=833.563 IS=10.093F ISC=99.9997P ISE=97.6519P ITF=10.4825M MJC=300M
+ MJE=368.532M NE=1.79681 NF=862.516M RE=381.078M TF=490.417P TR=21.615U
+ VAF=100 VJC=700M VJE=700M VTF=10 XTF=499.943M)

*** NPN General purpose transistor
.MODEL 2N4123 NPN (BF=200 BR=547.46M CJC=3.65353P CJE=4.29942P IKF=24.4053M
+ IKR=463.661 IS=9.98626F ISC=99.9998P ISE=999.82F ITF=9.91827M MJC=300M
+ MJE=300.046M NE=1.68989 NF=1.01698 RE=1.61708 TF=578.946P TR=307.061N
+ VAF=103.06 VJC=700.459M VJE=981.884M VTF=10 XTF=499.99M)

*** NPN General purpose transistor
.MODEL 2N4124 NPN (BF=370.002 BR=505.085M CJC=3.65353P CJE=4.29942P
+ IKF=31.4884M IKR=323.606 IS=9.98626F ISC=99.9985P ISE=100P ITF=9.84124M
+ MJC=300M MJE=300.046M NE=2.80584 NF=1.01698 RE=1.61708 TF=479.242P
+ TR=306.439N VAF=103.06 VJC=700.459M VJE=981.884M VTF=10 XTF=499.979M)

*** PNP General purpose transistor
.MODEL 2N4125 PNP (BF=197.67 BR=1.78032 CJC=6.19272P CJE=5.58842P FC=500.005M
+ IKF=35.5564M IKR=979.887 IS=9.92134F ISC=99.9988P ISE=948.955F ITF=10.0478M
+ MJC=345.596M MJE=306.029M NE=1.69233 NF=1.0436 RE=1.21078 TF=719.19P
+ TR=105.678N VAF=57.3667 VJC=700M VJE=753.564M VTF=10 XTF=500M)

*** NPN General purpose transistor
.MODEL 2N4265 NPN (BF=279.354 BR=40.392M CJC=3.98019P CJE=6.3828P IKF=1.06761
+ IKR=335.63 IS=9.86118F ISC=99.9748P ISE=.0123188F ITF=10.0436M MJC=300M
+ MJE=300M NE=1.15292 NF=1.10444 RC=129.648M RE=1.08677 TF=438.358P TR=710.239N
+ VAF=100 VJC=700.015M VJE=780.045M VTF=10 XTF=500.002M)

*** NPN General purpose transistor
.MODEL 2N4400 NPN (BF=172.569 BR=153.448M CJC=10.3264P CJE=23.5101P
+ IKF=369.869M IKR=10.5255M IS=10.0114F ISC=1.7231F ISE=1.04518P ITF=10.0109M
+ MJC=406.989M MJE=300M NE=1.54481 NF=975.892M RC=135.423M RE=444.896M
+ TF=622.276P TR=36.9388U VAF=133.557 VJC=746.535M VJE=700M VTF=10 XTF=500M)

*** PNP General purpose transistor
.MODEL 2N4402 PNP (BF=153.649 BR=2.44183 CJC=18.7578P CJE=26.7118P IKF=236.084M
+ IKR=999.881 IS=10.0148F ISC=100P ISE=963.727F ITF=10.1393M MJC=521.281M
+ MJE=379.685M NE=1.64374 NF=979.328M RE=726.765M TF=832.259P TR=160.642N
+ VAF=990.7 VJC=753.282M VJE=700M VTF=10 XTF=500.012M)

*** PNP General purpose transistor
.MODEL 2N4403 PNP (BF=248.133 BR=2.2552 CJC=18.7578P CJE=26.7118P IKF=334.446M
+ IKR=211.705 IS=10.0148F ISC=99.9999P ISE=.0368683F ITF=9.89195M MJC=521.281M
+ MJE=379.685M NE=1.23003 NF=979.328M RE=726.765M TF=609.031P TR=158.702N
+ VAF=990.7 VJC=753.282M VJE=700M VTF=10 XTF=499.992M)

*** PNP Amplifier transistors
.MODEL 2N5086 PNP (BF=208.865 BR=3.75696 CJC=6.90669P CJE=10.4678P IKF=53.647M
+ IKR=998.863 IS=10.0041F ISC=3.50303P ISE=999.824F ITF=5.79577M MJC=454.485M
+ MJE=453.596M NE=1.98305 NF=1.01536 RE=2 TF=2.81521N TR=10N VAF=90.7 VJC=700M
+ VJE=700.221M VTF=9.99973 XTF=497.912M)

*** NPN Amplifier transistors
.MODEL 2N5088 NPN (BF=716.651 BR=1M CJC=13.2665P CJE=14.1412P IKF=51.8789M
+ IKR=10M IS=9.92443F ISC=99.9829P ISE=8.67701F ITF=3.95559M MJC=571.784M
+ MJE=642.878M NE=1.65715 NF=1.09115 RC=2 RE=2 TF=891.17P TR=10N VAF=100
+ VJC=700.227M VJE=700M VTF=9.99947 XTF=502.31M)

*** PNP 10A 60V
.MODEL 2N5875 PNP (BF=824.700796295393 BR=522.600361871713M
+ CJC=616.540166301961P CJE=648.001841736813P FC=500.000005957779M
+ IKF=1.186582488745 IKR=1.042521491417 IS=9.98965981984F ISC=12.451814745973F
+ ISE=14.227491613221F ITF=11.36206010187M MJC=389.683939489984M
+ MJE=486.026665272619M NC=2.000000001182 NE=1.202248583323
+ NF=988.509882183973M RE=160.088381140199M TF=31.408712137691N
+ TR=6.76733228813U VAF=100 VJC=759.824683106422M VJE=744.212308506216M
+ VTF=9.999999843247 XTF=500.00085623662M)


.MODEL 1N3879 D (IS=4.641638F N=1.255502 BV=50 IBV=100.000001P RS=12.028657M
+ TT=369.945519N CJO=107.820346P VJ=1.269833 M=313.660098M RL=6.044776MEG)

.MODEL 1N3889 D (IS=230.590487N N=2.191894 BV=50 IBV=100.000001P RS=8.296236M
+ TT=369.945519N CJO=105.777127P VJ=1.464517 M=320.122265M RL=1.800542MEG)

.MODEL 1N3899 D (IS=46.311244P N=1.346817 BV=50 IBV=100.000001P RS=6.558147M
+ TT=521.408924N CJO=130.387527P VJ=2.335381 M=300M RL=1.785717MEG)

.MODEL 1N3909 D (IS=910.624109P N=1.530555 BV=50 IBV=100.000001P RS=3.970712M
+ TT=293.642278N CJO=110.332431P VJ=1.038854 M=300.173917M RL=1.785772MEG)

.MODEL 1N4933 D (IS=999.999997N N=2.744414 BV=50 IBV=100.000001P RS=22.704622M
+ TT=216.404264N CJO=27.279159P VJ=810.514976M M=443.766592M RL=100T)

.MODEL 1N4934 D (IS=999.999997N N=2.744414 BV=100 IBV=100.000001P RS=22.704622M
+ TT=216.404264N CJO=27.279159P VJ=810.514976M M=443.766592M RL=99.999833T)

.MODEL 1N4937 D (IS=999.999997N N=2.744414 BV=600 IBV=100.000001P RS=22.704622M
+ TT=216.404264N CJO=27.279159P VJ=810.514976M M=443.766592M RL=99.999822T)

.MODEL 1N5391 D (IS=8.304069N N=1.905257 BV=50 IBV=100.000001P RS=38.909525M
+ TT=5.308938U CJO=50.313333P VJ=700M M=492.102012M RL=1G)

.MODEL 1N5399 D (IS=7.887568N N=1.899601 BV=1K IBV=100.000001P RS=38.950002M
+ TT=7.584198U CJO=36.055915P VJ=700M M=512.418153M RL=1G)

.MODEL MR502 D (IS=6.794344P N=1.256617 BV=200 IBV=100.000001P RS=9.351924M
+ TT=6.989095U CJO=70.062689P VJ=700M M=556.00435M RL=1G)

.MODEL MR510 D (IS=5.766616P N=1.249025 BV=1K IBV=100.000001P RS=9.359753M
+ TT=6.989095U CJO=70.062689P VJ=700M M=556.00435M RL=1G)

.MODEL MR814 D (IS=22.717339U N=3.634503 BV=400 IBV=100.000001P RS=16.286174M
+ TT=625.548587N CJO=23.509088P VJ=1.779046 M=505.235745M RL=1G)

.MODEL MR818 D (IS=22.734958U N=3.634765 BV=1K IBV=100.000001P RS=16.285484M
+ TT=625.548587N CJO=23.509088P VJ=1.779046 M=505.235745M RL=1G)

.MODEL MR820 D (IS=197.584171U N=3.788683 BV=50 IBV=100.000001P RS=2.11607M
+ TT=369.945519N CJO=107.754813P VJ=1.261007 M=309.772389M RL=1G)

.MODEL MR2401 D (IS=34.804827N N=1.657904 BV=100 IBV=100.000001P RS=1.649332M
+ TT=5.766012U CJO=463.878324P VJ=700M M=491.845134M RL=1G)

.MODEL MR2508 D (IS=48.846136N N=1.69166 BV=800 IBV=100.000001P RS=1.630802M
+ TT=5.826696U CJO=459.460394P VJ=700M M=473.145458M RL=1G)

*** JFET-input operational amplifier
.MODEL LF155A OPA (LEVEL=3 GBW=2.5MEG IBIAS=30P IOFF=3P ROUTAC=50 ROUTDC=75
+ SRN=7MEG SRP=7MEG TYPE=3 VNS=-12.4 VPS=12.4)

*** Wide bandwidth JFET i/p opamp
.MODEL LF351 OPA (LEVEL=3 A=100K C=10P GBW=4MEG IBIAS=50P IOFF=25P ROUTAC=50
+ ROUTDC=75 SRN=13MEG SRP=13MEG TYPE=3 VNS=-12.9 VOFF=5M VPS=12.9)

*** Wide bandwidth JFET i/p opamp
.MODEL LF353 OPA (LEVEL=3 A=100K C=10P GBW=4MEG IBIAS=50P IOFF=25P ROUTAC=50
+ ROUTDC=75 SRN=13MEG SRP=13MEG TYPE=3 VNS=-12.9 VOFF=5M VPS=12.9)

*** Low power JFET i/p opamp
.MODEL LF441A OPA (LEVEL=3 A=100K C=10P IBIAS=10P IOFF=5P ROUTAC=50 ROUTDC=75
+ SRN=1MEG SRP=1MEG TYPE=3 VNS=-12.4 VOFF=300U VPS=12.4)

*** Dual low power JFET i/p opamp
.MODEL LF442 OPA (LEVEL=3 C=15P IBIAS=10P IOFF=5P ROUTAC=50 ROUTDC=75 SRN=1MEG
+ SRP=1MEG TYPE=3 VNS=-12.4 VPS=12.4)

*** High voltage, high slew rate opamp
.MODEL LM144 OPA (LEVEL=3 A=180K C=10P CMRR=31.6228K IBIAS=8N ROUTAC=50
+ ROUTDC=75 SRN=2.5MEG SRP=2.5MEG VCC=28 VEE=-28 VNS=-25.4 VOFF=2M VPS=25.4)

*** Operational amplifier
.MODEL LM207 OPA (LEVEL=3 A=100K IBIAS=30N IOFF=1.5N ROUTAC=50 ROUTDC=75 TYPE=3
+ VNS=-13.4 VOFF=700U VPS=13.4)

*** Operational amplifier
.MODEL LM208A OPA (LEVEL=3 A=100K IBIAS=800P IOFF=50P ROUTAC=50 ROUTDC=75
+ TYPE=3 VNS=-13.4 VOFF=300U VPS=13.4)

*** High voltage operational amplifier
.MODEL LM343 OPA (LEVEL=3 A=180K C=27P CMRR=31.6228K IBIAS=8N ROUTAC=50
+ ROUTDC=75 SRN=2.5MEG SRP=2.5MEG VCC=28 VEE=-28 VNS=-25.4 VOFF=2M VPS=25.4)

*** High voltage, high slew rate opamp
.MODEL LM344 OPA (LEVEL=3 A=180K C=10P CMRR=31.6228K IBIAS=8N ROUTAC=50
+ ROUTDC=75 SRN=2.5MEG SRP=2.5MEG VCC=28 VEE=-28 VNS=-25.4 VOFF=2M VPS=25.4)

*** Operational Amplifier
.MODEL LM709A OPA (LEVEL=3 A=45K CMRR=316.228K GBW=700K IBIAS=100N IOFF=10N
+ ROUTAC=50 ROUTDC=75 SRN=250K SRP=250K VCC=18 VEE=-18 VNS=-16 VOFF=600U VPS=16)

*** Operational Amplifier
.MODEL LM741A OPA (LEVEL=3 CMRR=31.6228K IBIAS=30N IOFF=3N ROUTAC=50 ROUTDC=75
+ SRN=700K SRP=700K VNS=-13.4 VOFF=800U VPS=13.4)

*** Dual Low noise operational amp.
.MODEL NE5532 OPA (LEVEL=3 A=100K GBW=10MEG IBIAS=200N IOFF=10N IOSC=38M
+ PD=100M ROUTAC=50 ROUTDC=75 SRN=9MEG SRP=9MEG VNS=-12.4 VOFF=500U VPS=12.4)

*** Precision JFET-input opamp
.MODEL OP_15A OPA (LEVEL=3 A=240K GBW=6MEG IBIAS=15P IOFF=3P ROUTAC=50
+ ROUTDC=75 SRN=13MEG SRP=13MEG TYPE=3 VNS=-12.4 VOFF=200U VPS=12.4)

*** General purpose operational amplifier
.MODEL UA741M OPA (LEVEL=3 CMRR=31.6228K IBIAS=80N IOFF=20N IOSC=25M PD=50M
+ ROUTAC=50 ROUTDC=75 VNS=-13.4 VPS=13.4)

*PINOUT ORDER IS RSB BOUT +VS AOUT RSA VCC GND IN 
*PINOUT           1    2   3    4   5   6   7   8
.SUBCKT SA50_AM 1 2 3 4 5 6 7 8 
* THIS LINE IS CLOCK GEN
V1 23 7 0 PULSE 0 1 100N 100N 100N 11.395U 22.222U
E1 14 7 15 24 1
RE2 26 7 1E9
E3 30 7 8 7 1
D5 5 4 D1M
S1 3 45 59 7 SM1
S2 3 9 22 7 SM1
S3 4 47 59 7 SM1
S4 2 21 22 7 SM1
R1 9 4 R1M 0.25
R2 45 2 R1M 0.25
R3 47 5 R1M 0.25
R4 21 1 R1M 0.25
S5 16 13 14 7 SM5
R25 29 7 1
S7 50 42 32 22 SM7
V2 31 7 10
S8 50 29 22 32 SM8
R13 23 7 1E9
R14 7 12 1E9
EQ1 48 7 VALUE = {V(12)*V(23)}
V8 32 7 2.5
R36 30 15 1E3
I1 3 7 0.011
D1 4 3 D1M
R5 48 24 51.575E3
D6 1 2 D1M
D7 2 3 D1M
I2 6 7 0.0026
C4 3 34 75E-12
C5 3 37 75E-12
C6 4 35 75E-12
C7 2 33 75E-12
C8 24 7 317.4E-12
R10 34 4 2.8
R12 35 5 2.8
R18 37 2 2.8
R20 33 1 2.8
R37 15 13 143E3
C15 8 7 10E-12
E2 7 28 26 13 -1
V11 26 7 4.5
D4 19 48 D4M
R15 19 24 981.427E3
R16 48 24 50E12
R39 28 59 10E3
Q1 8 25 12 QPU
.MODEL QPU PNP
C10 51 7 2000E-12
R27 50 51 10
I4 25 12 10E-9
R17 8 7 10E6
R19 13 7 10
R28 31 42 1
V13 16 7 5
E13 53 7 42 31 1
R29 53 54 300
C11 54 7 1E-6
G2 7 3 54 7 14
E14 12 7 6 7 1
R42 7 14 1E9
R30 3 7 6700
R31 6 7 1795
R45 54 7 1E9
C13 59 7 20E-12
R46 13 22 10E3
C14 22 7 20E-12
D2 22 13 D2M
R35 16 7 1E9
D3 59 28 D2M
.MODEL R1M RES (TC1=7.374E-3 TC2=2.598E-5)
.MODEL SM1 VSWITCH RON=0.01 ROFF=1E6 VON=2.55 VOFF=2.50
.MODEL SM5 VSWITCH RON=1 ROFF=1E3 VON=0.001 VOFF=0
.MODEL SM7 VSWITCH RON=1 ROFF=1E5 VON=0.1 VOFF=0
.MODEL SM8 VSWITCH RON=1 ROFF=1E5 VON=0.1 VOFF=0
.MODEL D1M D (IS=4.5E-14 M=0.333 N=1.61 RS=0.112 VJ=0.75)
.MODEL D4M D (CJO=1E-12 IS=1.68E-08 M=0.333 N=1.89 RS=0.452 VJ=0.75)
.MODEL D2M D (IS=1.68E-08 M=0.333 N=1.89 RS=0.452 VJ=0.75)
.ENDS 
*END OF MODEL SA50 
********** 

.SUBCKT LF155_LT 3 2 7 4 6 
* INPUT
VCM2 40 4 2.0000E+00
RD1 40 80 2.1221E+03
RD2 40 90 2.1221E+03
J1 80 102 12 JM1 
J2 90 103 12 JM2 
CIN 2 3 4.0000E-12
RG1 2 102 2.0000E+00
RG2 3 103 2.0000E+00
** CM CLAMP 
* DCM1 107 103 DM4 
* DCM2 105 107 DM4 
* VCMC 105 4 4.0E+00
* ECMP 106 4 103 4 1 
* RCMP 107 106 1E+04
* DCM3 109 102 DM4 
* DCM4 105 109 DM4 
* ECMN 108 4 102 4 1 
* RCMN 109 108 1E+04
** END CM CLAMP 
C1 80 90 1.5000E-11
ISS 7 12 2.8000E-04
GOSIT 7 12 90 80 1.4000E-04
* INTERMEDIATE 
GCM 0 8 12 0 4.7124E-09
GA 8 0 80 90 4.7124E-04
R2 8 0 1.0000E+05
C2 1 8 3.0000E-11
GB 1 0 8 0 4.2768E+01
RO2 1 0 9.9000E+01
* OUTPUT 
RSO 1 6 1.0000E+00
ECL 18 0 1 6 2.0124E+01
GCL 0 8 20 0 1.0000E+00
RCL 20 0 1.0000E+03
D1 18 20 DM1 
D2 20 18 DM1 
* 
D3A 131 70 DM3 
D3B 13 131 DM3 
GPL 0 8 70 7 1.0000E+00
VC 13 6 3.1403E+00
RPLA 7 70 1.0000E+04
RPLB 7 131 1.0000E+05
D4A 60 141 DM3 
D4B 141 14 DM3 
GNL 0 8 60 4 1.0000E+00
VE 6 14 3.1403E+00
RNLA 60 4 1.0000E+04
RNLB 141 4 1.0000E+05
* 
IP 7 4 1.7200E-03
DSUB 4 7 DM2 
* MODELS 
.MODEL JM1 PJF (IS=3.1500E-11 BETA=3.9655E-04 VTO=-1.000000E+00)
.MODEL JM2 PJF (IS=2.8500E-11 BETA=3.9655E-04 VTO=-9.980000E-01)
.MODEL DM1 D (IS=1.0000E-15)
.MODEL DM2 D (IS=8.0000E-16 BV=5.2800E+01)
.MODEL DM3 D (IS=1.0000E-16)
.MODEL DM4 D (IS=1.0000E-09)
.ENDS


.SUBCKT OP27_AD     1 2 99 50 39
*
* INPUT STAGE   POLE AT 80 MHZ
*
R3   5  97    0.0619
R4   6  97    0.0619
CIN  1   2    4E-12
C2   5   6    16.07E-9
I1   4  51    1
IOS  1   2    3.5E-9
EOS  9  10    POLY(1)  30 33  10E-6  1
Q1   5  2  7  QX
Q2   6  9  8  QX
R5   7   4    0.0107
R6   8   4    0.0107
D1   2   1    DX
D2   1   2    DX
EN   10  1    12  0  1
GN1  0   2    15  0  1
GN2  0   1    18  0  1
*
EREF  98 0    33  0  1
EPLUS 97 0    99  0  1
ENEG  51 0    50  0  1 
*
* VOLTAGE NOISE SOURCE WITH FLICKER NOISE
*
DN1  11  12   DEN
DN2  12  13   DEN
VN1  11   0   DC 2
VN2  0   13   DC 2
*
* CURRENT NOISE SOURCE WITH FLICKER NOISE
*
DN3  14  15   DIN
DN4  15  16   DIN
VN3  14   0   DC 2
VN4  0   16   DC 2
*
* SECOND CURRENT NOISE SOURCE
*
DN5  17  18   DIN
DN6  18  19   DIN
VN5  17   0   DC 2
VN6  0   19   DC 2
*
* GAIN STAGE   DOMINANT POLE AT 4.0 HZ
*
R7   20 98     111.5E3
C3   20 98     357E-9
G1   98 20     5  6  16.15
V1   97 21     1.2
V2   22 51     1.2
D5   20 21     DX
D6   22 20     DX
*
* POLE - ZERO AT 2.9MHZ / 6MHZ
*
R8   23 98     1
R9   23 24     0.935
C4   24 98     28.4E-9
G2   98 23     20 33  1
*
* ZERO - POLE AT 6.8MHZ / 40MHZ
*
R10  25 26     1
R11  26 98     4.88
L1   26 98     19.4E-9
G3   98 25     23 33  1
*
* POLE AT 60 MHZ
*
R12  27 98     1
C5   27 98     2.65E-9
G4   98 27     25 33 1
*
* ZERO AT 28 MHZ
*
R13  28 29     1
C6   28 29     -5.68E-9
R14  29 98     1E-6
E1   28 98     27 33  1E6
*
* COMMON-MODE GAIN NETWORK WITH ZERO AT 3 KHZ
*
R15  30 31     1
L2   31 98     53.1E-6
G5   98 30     POLY(2) 2  33  1  33  0  250.5E-9  250.5E-9
D7   30 97     DX
D8   51 30     DX
*
* POLE AT 80 MHZ
*
R16  32 98     1
C7   32 98     1.99E-9
G6   98 32     29 33  1
*
* OUTPUT STAGE
*
R17  33 97     1
R18  33 51     1
GSY  99 50     POLY(1) 99 50 1.8E-3 40E-6
F1   34  0     V3  1
F2   0  34     V4  1
R19  34 99     180
R20  34 50     180
L3   34 39     1E-7
G7   37 50     32 34  5.56E-3
G8   38 50     34 32  5.56E-3
G9   34 99     99 32  5.56E-3
G10  50 34     32 50  5.56E-3
V3   35 34     2.5
V4   34 36     3.1
D9   32 35     DX
D10  36 32     DX
D11  99 37     DX
D12  99 38     DX
D13  50 37     DY
D14  50 38     DY
*
* MODELS USED
*
.MODEL QX NPN(BF=50E6)
.MODEL DX   D(IS=1E-15)
.MODEL DY   D(IS=1E-15 BV=50)
.MODEL DEN  D(IS=1E-12, RS=1.09K, KF=1.08E-16, AF=1)
.MODEL DIN  D(IS=1E-12, RS=19.3E-6, KF=4.28E-15, AF=1)
.ENDS

.subckt PAL16C1 1 2 3 4 5 6 7 8 9 11 12 13 14 15 16 17 18 19
+     optional:  20=$G_DPWR 10=$G_DGND
+     params:  MNTYMXDLY=0 IO_LEVEL=0
+     text: JEDFILE="PLD.JED"

U1 PLANDC(16,16) 20 10
+  2 1 3 19 4 18 5 17 6 14 7 13 8 12 9 11
+  row1 row2 row3 row4 row5 row6 row7 row8 row9 row10
+  row11 row12 row13 row14 row15 row16
+  D0_PLD IO_S MNTYMXDLY={MNTYMXDLY} IO_LEVEL={IO_LEVEL}
+  FILE=|JEDFILE|

U2 ORA(8,2) 20 10
+  row1 row2 row3 row4 row5 row6 row7 row8
+  row9 row10 row11 row12 row13 row14 row15 row16
+  OR1 OR2
+  D0_GATE IO_S MNTYMXDLY={MNTYMXDLY} IO_LEVEL={IO_LEVEL}

U3 OR(2) 20 10
+  OR1 OR2 16
+  DLY_16C1 IO_S MNTYMXDLY={MNTYMXDLY} IO_LEVEL={IO_LEVEL}

U4 NOR(2) 20 10
+  OR1 OR2 15
+  DLY_16C1 IO_S MNTYMXDLY={MNTYMXDLY} IO_LEVEL={IO_LEVEL}

.model DLY_16C1 ugate (tplhTY=25ns tplhMX=35ns tphlTY=25ns tphlMX=35ns)

.ENDS PAL16C1

.SUBCKT irf130_IR 1 2 3
**************************************
*      Model Generated by MODPEX     *
*Copyright(c) Symmetry Design Systems*
*         All Rights Reserved        *
*    UNPUBLISHED LICENSED SOFTWARE   *
*   Contains Proprietary Information *
*      Which is The Property of      *
*     SYMMETRY OR ITS LICENSORS      *
*Commercial Use or Resale Restricted *
*   by Symmetry License Agreement    *
**************************************
* Model generated on Dec 18, 96
* MODEL FORMAT: SPICE3
* Symmetry POWER MOS Model (Version 1.0)
* External Node Designations
* Node 1 -> Drain
* Node 2 -> Gate
* Node 3 -> Source
M1 9 7 8 8 MM L=100u W=100u
* Default values used in MM:
* The voltage-dependent capacitances are
* not included. Other default values are:
*   RS=0 RD=0 LD=0 CBD=0 CBS=0 CGBO=0
.MODEL MM NMOS LEVEL=1 IS=1e-32
+VTO=3.7086 LAMBDA=0.00546869 KP=6.47954
+CGSO=6.01571e-06 CGDO=1.00038e-11
RS 8 3 0.103578
D1 3 1 MD
.MODEL MD D IS=2.87214e-09 RS=0.0503805 N=1.43125 BV=100
+IBV=0.001 EG=1.2 XTI=3.00448 TT=0.0001
+CJO=7.8614e-10 VJ=2.16409 M=0.538403 FC=0.437289
RDS 3 1 3.2e+06
RD 9 1 0.0297028
RG 2 7 22.01
D2 4 5 MD1
* Default values used in MD1:
*   RS=0 EG=1.11 XTI=3.0 TT=0
*   BV=infinite IBV=1mA
.MODEL MD1 D IS=1e-32 N=50
+CJO=7.26039e-10 VJ=0.5 M=0.746885 FC=1e-08
D3 0 5 MD2
* Default values used in MD2:
*   EG=1.11 XTI=3.0 TT=0 CJO=0
*   BV=infinite IBV=1mA
.MODEL MD2 D IS=1e-10 N=0.4 RS=3e-06
RL 5 10 1
FI2 7 9 VFI2 -1
VFI2 4 0 0
EV16 10 0 9 7 1
CAP 11 10 1.51832e-09
FI1 7 9 VFI1 -1
VFI1 11 6 0
RCAP 6 10 1
D4 0 6 MD3
* Default values used in MD3:
*   EG=1.11 XTI=3.0 TT=0 CJO=0
*   RS=0 BV=infinite IBV=1mA
.MODEL MD3 D IS=1e-10 N=0.4
.ENDS

*** NMOS 2A 3 Ohm 60V
.MODEL 2N6660 NMOS (CBD=93.1341P CGDO=1.65276N CGSO=1.65276N GAMMA=0 GDSNOI=0
+ IS=10F JS=10N KP=20U L=2U LAMBDA=339.745F NLEV=0 NSUB=0 PHI=600M RDS=6MEG
+ RG=3.92609 TOX=0 TPG=1 UO=600 VTO=1.69176 W=8.37615M)

*** 3.6V 1W Zener Diode
.MODEL 1N4729 D (BV=3.6 CJO=304.996P IBV=69M IS=5.72393F M=498.07M RL=1G RS=10
+ VJ=750.089M)

*** 12V 1W Zener Diode
.MODEL 1N4742 D (BV=12 CJO=91.7073P IBV=21M IS=5.72393F M=500.767M RL=1G RS=9
+ VJ=750.109M)

*** 7.5V 1W Zener Diode
.MODEL 1N4737 D (BV=7.5 CJO=129.497P IBV=34M IS=5.72393F M=496.925M RL=1G RS=4
+ VJ=750.09M)

.SUBCKT 2N7000_ZX 3 4 5
* Nodes        D G S
M1 3 2 5 5 MOD1
RG 4 2 343
RL 3 5 6E6
C1 2 5 23.5P
C2 3 2 4.5P 
D1 5 3 DIODE1
*
.MODEL MOD1 NMOS VTO=2.474 RS=1.68 RD=0.0 IS=1E-15 KP=0.296
+CBD=53.5P PB=1 LAMBDA=267E-6
.MODEL DIODE1 D IS=1.254E-13 N=1.0207 RS=0.222
.ENDS 2N7000_ZX

