*****
* SMALL.LIB 
* Spectrum Software
* http://www.spectrum-soft.com
* All Rights Reserved
*****
.MODEL LF155 OPA (LEVEL=3 C=29.999999p GBW=2.5MEG IBIAS=29.999999p IOFF=3p
+ ROUTAC=50 ROUTDC=75 SRN=7MEG SRP=7MEG TYPE=3 VCC=22 VEE=-22 VOFF=2m)
.MODEL LF347 OPA (LEVEL=3 A=100K C=10p GBW=4MEG IBIAS=50.000001p IOFF=25p
+ ROUTAC=50 ROUTDC=75 SRN=17.5MEG SRP=13MEG TYPE=3 VCC=22 VEE=-22 VNS=-14
+ VOFF=5m VPS=14)
.MODEL LF400C OPA (LEVEL=3 C=6p GBW=18MEG IBIAS=200.000003p IOFF=20p ROUTAC=50
+ ROUTDC=75 SRN=57MEG SRP=57MEG TYPE=3 VCC=18 VEE=-18 VNS=-14 VOFF=4m VPS=14)
.MODEL LM101A OPA (LEVEL=3 A=160K C=29.999999p IBIAS=29.999999n IOFF=1.5n
+ ROUTAC=50 ROUTDC=75 TYPE=3 VCC=22 VEE=-22 VNS=-14 VOFF=699.999975u VPS=14)
.MODEL LM108 OPA (LEVEL=3 A=100K C=29.999999p IBIAS=800.000011p IOFF=50.000001p
+ ROUTAC=50 ROUTDC=75 TYPE=3 VCC=20 VEE=-20 VNS=-14 VOFF=699.999975u VPS=14)
.MODEL LM709 OPA (LEVEL=3 A=45K C=29.999999p CMRR=31.622779K GBW=700K
+ IBIAS=200.000002n IOFF=50.000001n ROUTAC=50 ROUTDC=75 SRN=250K SRP=250K
+ VCC=18 VEE=-18 VNS=-16 VPS=16)
.MODEL LM741 OPA (LEVEL=3 C=29.999999p CMRR=31.622801K IBIAS=80n IOFF=20n
+ ROUTAC=50 ROUTDC=75 VCC=18 VEE=-18 VNS=-16 VPS=16)
.MODEL LT1012C OPA (LEVEL=3 A=2MEG C=29.999999p CMRR=3.98107MEG
+ IBIAS=29.999999p IOFF=20p ROUTAC=50 ROUTDC=75 SRN=2.5MEG SRP=2.5MEG TYPE=2
+ VNS=-14 VOFF=10u VPS=14)
.MODEL OP_07 OPA (LEVEL=3 A=500K C=50.000001p CMRR=1.99526MEG GBW=600K
+ IBIAS=999.999972p IOFF=400.000005p ROUTAC=50 ROUTDC=75 SRN=300K SRP=300K
+ VCC=22 VEE=-22 VOFF=29.999999u)
.MODEL OP_27 OPA (LEVEL=3 A=1.8MEG C=29.999999p CMRR=1.995262MEG GBW=8MEG
+ IBIAS=10n IOFF=9n ROUTAC=50 ROUTDC=75 SRN=2.8MEG SRP=2.8MEG VNS=-13.8
+ VOFF=10u VPS=13.8)
*** Medium current silicon rectifier
.MODEL 1N3491 D (BV=50 CJO=1.663921078181n IBV=100.000001335143p
+ IS=9.131611008571p M=1.022737882499 N=1.232838733749 RL=49.99996875K
+ RS=4.220386697051m TT=6.035286327831u VJ=700.000000010202m)
*** Fast Recovery Power Rectifier
.MODEL 1N3900 D (BV=100 CJO=130.3875274667p IBV=100.000001335143p
+ IS=45.723305087985p M=300.000000002658m N=1.346135991432 RL=1.785717177178MEG
+ RS=6.558665420946m TT=521.408924482283n VJ=2.33538051836)
*** 1.0 Amp Silicon Rectifier
.MODEL 1N4001 D (BV=50 CJO=47.63613877599p IBV=100.000001335143p
+ IS=3.50706071755n M=449.723256862637m N=1.695189156346 RL=10.007019255539MEG
+ RS=121.232917696026m TT=4.932606924753u VJ=700m)
*** Generic Diode
.MODEL 1N4148 D (BV=100 CJO=1.337036107983p IBV=100.000001335143p
+ IS=7.187424213727n M=316.713485720598m N=1.948779840702 RL=3.521382925064G
+ RS=439.577907681216m TT=8.952928n VJ=9.476621366916)
*** Fast Recovery Rectifier
.MODEL 1N4935 D (BV=200 CJO=27.279158727881p IBV=100.000001335143p
+ IS=999.999997475237n M=443.766592043319m N=2.744414003831 RL=99.999953713913T
+ RS=22.70462196044m TT=216.404263786747n VJ=810.514976462868m)
*** Fast Recovery Rectifier
.MODEL 1N4936 D (BV=400 CJO=27.279158727881p IBV=100.000001335143p
+ IS=999.999997475237n M=443.766592043319m N=2.744414003831 RL=99.999887831931T
+ RS=22.70462196044m TT=216.404263786747n VJ=810.514976462868m)
*** General Purpose
.MODEL 1N914 D (BV=100 CJO=1.583731520851p IBV=100.000001335143p
+ IS=7.000000135093n M=300.000000014883m N=1.81233368286 RL=3.896104012709G
+ RS=1.809788810542 TT=11.541560143871n VJ=12.627891766945)
*** Standard recovery power rectifiers
.MODEL MR500 D (BV=50 CJO=70.062689246362p IBV=100.000001335143p
+ IS=6.877437461824p M=556.004350489577m N=1.257190252773 RL=1G
+ RS=9.351257069872m TT=6.989095181762u VJ=700m)
*** High current lead mounted Si rect.
.MODEL MR750 D (BV=50 CJO=1.584761923254n IBV=100.000001335143p
+ IS=48.895728129528n M=986.309451738679m N=1.691753986446 RL=1G
+ RS=1.630760459302m TT=7.783679600001u VJ=700m)
*** Fast Recovery power rectifier
.MODEL MR810 D (BV=50 CJO=23.509088007319p IBV=100.000001335143p
+ IS=22.78126602923u M=505.235744785443m N=3.635455232086 RL=1G
+ RS=16.283674489065m TT=625.54858721318n VJ=1.779045865289)
.MODEL 2N2218 NPN (BF=112.569971 BR=171.222m CJC=36.643715p CJE=42.423882p
+ IKF=314.794955m IKR=476.23511 IS=10.016998f ISC=2.934123p ISE=955.181897f
+ ITF=10.287061m MJC=558.065918m MJE=642.887486m NE=1.612832 NF=979.989695m
+ RE=668.817453m TF=407.084476p TR=2.301168u VAF=100 VJC=700m VJE=700.000001m
+ VTF=9.999998 XTF=500.021035m)
.MODEL 2N2222 NPN (BF=122.289422 BR=165.901514m CJC=36.643715p CJE=42.423882p
+ IKF=178.406282m IKR=46.739193 IS=10.016998f ISC=855.470739f ISE=1.039501p
+ ITF=10.287061m MJC=558.065918m MJE=642.887486m NE=1.668113 NF=979.989695m
+ RE=668.817453m TF=407.084476p TR=2.429966u VAF=100 VJC=700m VJE=700.000001m
+ VTF=9.999998 XTF=500.021035m)
.MODEL 2N2222A NPN (BF=200.601408 BR=155.257126m CJC=36.643715p CJE=35.353087p
+ IKF=1.771307 IKR=995.297941 IS=10.016998f ISC=9.152515p ISE=999.156803f
+ ITF=9.910186m MJC=558.065918m MJE=642.879621m NE=1.83441 NF=979.989695m
+ RE=668.817453m TF=336.941474p TR=2.263036u VAF=100 VJC=700m VJE=700m
+ VTF=10.000001 XTF=499.994393m)
.MODEL 2N2369 NPN (BF=199.979753 BR=283.437516m CJC=13.266502p CJE=6.9282p
+ IKF=34.441872m IKR=1.012131 IS=9.936098f ISC=15.301083p ISE=1.013029p
+ ITF=10.14046m MJC=571.783549m MJE=619.258555m NE=1.801278 NF=1.161141 RC=500m
+ RE=1.999923 TF=221.442878p TR=78.162937n VAF=100 VJC=700.227464m
+ VJE=700.315969m VTF=9.999999 XTF=499.991054m)
.MODEL 2N3055A NPN (BF=270.29609 BR=1m CJC=291.641046p CJE=501.999982p
+ IKF=2.14332 IKR=10m IS=10.320472f ISC=99.9996p ISE=.000000208012f
+ ITF=194.865478p MJC=399.824327m MJE=531.887165m NE=615.576038m NF=848.945032m
+ RC=30.930979m RE=92.878899m TF=59.567523n TR=147.734964m VAF=100
+ VJC=700.019587m VJE=750.95773m VTF=10.002711 XTF=508.323611m)
.MODEL 2N3501 NPN (BF=179.207286 BR=167.831797m CJC=36.643715p CJE=113.130169p
+ IKF=150.905742m IKR=986.251366 IS=9.989621f ISC=14.395885p ISE=1.03175p
+ ITF=10.033341m MJC=558.065918m MJE=642.884441m NE=1.794345 NF=1.100432
+ RE=1.354821 TF=491.081737p TR=8.159712u VAF=100 VJC=700m VJE=700m VTF=10
+ XTF=499.99702m)
.MODEL 2N3903 NPN (BF=170.711542 BR=568.799596m CJC=3.664668p CJE=4.420954p
+ FC=500.000001m IKF=26.361546m IKR=984.985354 IS=10.018393f ISC=99.999997p
+ ISE=998.747489f ITF=9.949102m MJC=300m MJE=423.14488m NE=1.637718 NF=1.017722
+ RE=1.475253 TF=576.506346p TR=526.622298n VAF=101.811112 VJC=700.055436m
+ VJE=1 VTF=10 XTF=499.995525m)
.MODEL 2N3904 NPN (BF=328.472973 BR=528.914386m CJC=3.664412p CJE=4.420954p
+ IKF=26.520453m IKR=200.262484 IS=10.018393f ISC=99.999965p ISE=1.00256p
+ ITF=10.102853m MJC=300m MJE=423.14488m NE=1.723416 NF=1.017722 RE=1.475253
+ TF=477.296743p TR=595.424414n VAF=101.811112 VJC=700.503257m VJE=1
+ VTF=10.000001 XTF=500.027482m)
.MODEL MJE240 NPN (BF=201.438009 BR=113.883404m CJC=41.759495p CJE=290.23572p
+ FC=500.000001m IKF=543.694673m IKR=999.888099 IS=10.038571f ISC=99.999995p
+ ISE=4.245164p ITF=7.482545m MJC=300m MJE=501.362169m NE=1.681571
+ NF=893.025763m RE=166.715887m TF=3.050382n TR=27.590543u VAF=100 VJC=700m
+ VJE=749.974971m VTF=9.999998 XTF=500.021418m)
.MODEL 2SK351 NMOS (CBD=1.028786n CGDO=491.195232p CGSO=11.592661n GAMMA=0
+ IS=10f JS=10n KP=20u L=2u LAMBDA=729.698755u MJSW=330.00001m NSUB=0
+ PBSW=800.00001m PHI=600.00002m RD=1.525831 RDS=639.99997K RG=90.08052 TOX=0
+ TPG=1 UO=600 VTO=4.194917 W=195.565402m)
.MODEL IRF024 NMOS (CBD=1.697994n CGDO=1.066929n CGSO=.10038f GAMMA=0 IS=10f
+ JS=10n KP=20u L=2u LAMBDA=1.124898p MJSW=330.00001m NSUB=0 PBSW=800.00001m
+ PHI=600.00002m RDS=239.999989K RG=21.250636 TOX=0 TPG=1 UO=600 VTO=3.450998
+ W=374.147561m)
.MODEL IRF450 NMOS (CBD=1.5617n CGDO=366.586559p CGSO=831.618165p GAMMA=0
+ IS=10f JS=10n KP=20u L=2u LAMBDA=2.136604m MJSW=330.00001m NSUB=0
+ PBSW=800.00001m PHI=600.00002m RD=315.15822m RDS=2MEG RG=2.498684 TOX=0 TPG=1
+ UO=600 VTO=3.90193 W=1.01111)
.MODEL IRF510 NMOS (CBD=380.486845p CGDO=844.173743p CGSO=2.379316n GAMMA=0
+ IS=10f JS=10n KP=20u L=2u LAMBDA=2.470013m MJSW=330.00001m NSUB=0
+ PBSW=800.00001m PHI=600.00002m RD=53.621555m RDS=319.999985K RG=28.486488
+ TOX=0 TPG=1 UO=600 VTO=3.130819 W=63.414331m)
.MODEL IRF710 NMOS (CBD=134.99999p CGDO=191.497093p CGSO=3.246373n GAMMA=0
+ IS=10f JS=10n KP=20u L=2u LAMBDA=5.716042m MJSW=330.00001m NSUB=0
+ PBSW=800.00001m PHI=600.00002m RD=2.816138 RDS=1.6MEG RG=14.153611 TOX=0
+ TPG=1 UO=600 VTO=3.457707 W=94.846266m)
.MODEL MTP15N06L NMOS (CBD=1.419727n CGDO=429.102189p CGSO=2.398235n GAMMA=0
+ IS=10f JS=10n KP=20u L=2u LAMBDA=109.675148f MJSW=330.00001m NSUB=0
+ PBSW=800.00001m PHI=600.00002m RD=5.960806m RDS=60MEG RG=108.60602 TOX=0
+ TPG=1 UO=600 VTO=1.338153 W=353.425914m)
.MODEL 2N3070 NJF (AF=500.524773m BETA=2.953635m CGD=2.783703p CGS=3.164213p
+ IS=10f KF=.0004997636f LAMBDA=9.999999m PB=1.937899 RS=286.385332
+ VTO=-2.342435)
.MODEL 2N3822 NJF (AF=500.096041m BETA=28.519268m CGD=4.191359p CGS=5.347658p
+ IS=10f KF=.014007f LAMBDA=10m PB=967.073083m RS=177.127857 VTO=-2.713168)
.MODEL 2N5545 NJF (AF=500.784765m BETA=1.619123m CGD=1.798407p CGS=3.810991p
+ IS=10f KF=.0002813542f LAMBDA=7m PB=167.5348m RS=149.945459 VTO=-2.254224)
.MODEL J308 NJF (AF=500.019723m BETA=1.747581m CGD=7.530502p CGS=7.795544p
+ IS=10f KF=.001413569f LAMBDA=29.999998m PB=777.7421m RS=17.536109m
+ VTO=-3.942262)
.MODEL MPF102 NJF (AF=499.953m BETA=286.155879m CGD=1.542479p CGS=2.567003p
+ IS=10f KF=7.905907f LAMBDA=20m PB=1.49 RS=239.291052 VTO=-3.061588)
.MODEL 3B7 CORE (A=15.013583 K=712.781493m MS=342.001991K)
.MODEL 3C81 CORE (A=20.568442 K=15.533772 MS=386.009992K)
.MODEL 3C85 CORE (A=17.501074 K=16.468211 MS=362.697287K)
.MODEL 3F3 CORE (A=21.607291 C=34.927959m K=16.07888 MS=363.8987K)
.MODEL 2N2904 PNP (BF=109.35667 BR=5 CJC=36.643715p CJE=67.025202p
+ IKF=419.779371m IKR=999.9992 IS=10.199512f ISC=.0004638818f ISE=1.000041p
+ ITF=10m MJC=558.065918m MJE=595.492584m NE=2.035054 NF=1.275219
+ RC=424.983725m RE=2 TF=1n TR=17.390895n VAF=100 VJC=700m VJE=700m VTF=10
+ XTF=500m)
.MODEL 2N2906 PNP (BF=109.358 BR=3.50929 CJC=36.6437P CJE=67.0252P IKF=421.521M
+ IKR=999.257M IS=10.0118F ISC=14.5559P ISE=964.85F ITF=10M MJC=558.066M
+ MJE=595.493M NE=1.52035 NF=954.211M RC=386.281M RE=1.56766 TF=1N TR=28.4677N
+ VAF=100 VJC=700M VJE=700M VTF=10 XTF=500M)
.MODEL 2N3244 PNP (BF=178.489552 BR=658.24951m CJC=114.511925p CJE=141.412061p
+ IKF=999.182063m IKR=999.750183m IS=2.615631f ISC=23.949926p ISE=976.052306f
+ ITF=8.044161m MJC=558.066926m MJE=642.875877m NE=1.633465 NF=1.008467
+ RE=1.284568 TF=548.55467p TR=528.704854n VAF=100 VJC=700m VJE=700m VTF=10
+ XTF=500.004407m)
.MODEL 2N3250 PNP (BF=91.614816 BR=4.999996 CJC=27.482861p CJE=13.856401p
+ IKF=46.272053m IKR=121.152963 IS=9.179607f ISC=9.535619f ISE=961.338634f
+ ITF=9.775417m MJC=558.066921m MJE=619.258565m NE=2.580986 NF=1.45085
+ RE=1.990924 TF=383.108778p TR=64.423619n VAF=100 VJC=700m VJE=700.315972m
+ VTF=9.999999 XTF=500.014897m)
.MODEL 2N3634 PNP (BF=86.390212 BR=9.300765m CJC=64.031204p CJE=129.903755p
+ IKF=52.808577m IKR=10.000037m IS=9.989621f ISC=14.929204f ISE=957.542133f
+ ITF=163.666615p MJC=548.292898m MJE=619.258561m NE=1.801985 NF=1.100432 RC=2
+ RE=1.354821 TF=26.591143p TR=10n VAF=100 VJC=700.234834m VJE=700.315971m
+ VTF=9.99551 XTF=1.439955)
.MODEL 2N3905 PNP (BF=129.538807 BR=3.113618 CJC=6.905303p CJE=6.118564p
+ FC=500.000001m IKF=44.98983m IKR=998.407622 IS=9.994847f ISC=99.999999p
+ ISE=1.003338p ITF=10m MJC=363.510634m MJE=300m NE=1.741996 NF=1.025904
+ RC=795.411196m RE=686.684194m TF=1n TR=119.261975n VAF=3.358227
+ VJC=754.908434m VJE=700m VTF=10 XTF=500m)
.MODEL 2N3906 PNP (BF=201.174586 BR=2.68797 CJC=6.905303p CJE=6.118564p
+ FC=500.000001m IKF=77.022493m IKR=995.981597 IS=9.994847f ISC=99.999997p
+ ISE=998.889079f ITF=10m MJC=363.510634m MJE=300m NC=2.000001 NE=1.897067
+ NF=1.025904 RC=927.07418m RE=686.684194m TF=1n TR=151.902965n VAF=3.358227
+ VJC=754.908434m VJE=700m VTF=10 XTF=500m)
.MODEL 2SJ102 PMOS (CBD=1.506436n CGDO=24.693669n CGSO=.168079f GAMMA=0 IS=10f
+ JS=10n KP=20u L=2u LAMBDA=2.211709m MJSW=330.00001m NSUB=0 PBSW=800.00001m
+ PHI=600.00002m RDS=59.999997K RG=19.43599 TOX=0 TPG=1 UO=600 VTO=-4.336344
+ W=43.013164m)

